
# ######################################################################################
#  Gold test set entry 1abe                       v2.0 alfa, May 21, 2001 (WN)         #
#  Name:               binding protein                                                 #
#  PDB headers:        l-arabinose-binding protein complex with l-arabinose            #
#  Resolution:         1.7 Angstrom                                                    #
########################################################################################


@<TRIPOS>MOLECULE
Minimised_ligand (1abe) binding protein                         
   20    20     1     1     0
SMALL
GASTEIGER


@<TRIPOS>ATOM
      1 C1         14.2969   56.5786   55.1945 C.3       1 <1>         0.1850 
      2 H2         14.2067   55.5435   55.5623 H         1 <1>         0.0935 
      3 C3         12.8868   57.1376   54.8674 C.3       1 <1>         0.1339 
      4 H4         12.9636   58.2083   54.6159 H         1 <1>         0.0671 
      5 C5         12.2893   56.3631   53.6650 C.3       1 <1>         0.1137 
      6 H6         12.0990   55.3268   53.9903 H         1 <1>         0.0647 
      7 C7         13.2818   56.3341   52.4720 C.3       1 <1>         0.1069 
      8 H8         12.8815   55.6601   51.6962 H         1 <1>         0.0643 
      9 C9         14.6621   55.8153   52.9481 C.3       1 <1>         0.0792 
     10 H10        15.3826   55.8885   52.1189 H         1 <1>         0.0587 
     11 H11        14.5971   54.7574   53.2512 H         1 <1>         0.0587 
     12 O12        14.9024   57.3304   56.2575 O.3       1 <1>        -0.3649 
     13 H13        15.0522   58.2380   56.0154 H         1 <1>         0.2126 
     14 O14        12.0097   56.9853   55.9968 O.3       1 <1>        -0.3841 
     15 H15        12.3298   57.4406   56.7690 H         1 <1>         0.2101 
     16 O16        11.0243   56.9131   53.2633 O.3       1 <1>        -0.3864 
     17 H17        11.1046   57.8076   52.9497 H         1 <1>         0.2100 
     18 O18        13.4119   57.6204   51.8429 O.3       1 <1>        -0.3869 
     19 H19        13.8217   58.2709   52.4015 H         1 <1>         0.2100 
     20 O20        15.1557   56.6188   54.0363 O.3       1 <1>        -0.3462 
@<TRIPOS>BOND
     1    1    3 1    
     2    1   12 1    
     3    1   20 1    
     4    1    2 1    
     5    3    5 1    
     6    3   14 1    
     7    3    4 1    
     8    5    7 1    
     9    5   16 1    
    10    5    6 1    
    11    7    9 1    
    12    7   18 1    
    13    7    8 1    
    14    9   20 1    
    15    9   10 1    
    16    9   11 1    
    17   12   13 1    
    18   14   15 1    
    19   16   17 1    
    20   18   19 1    
@<TRIPOS>SUBSTRUCTURE
     1 ****        1 TEMP              0 ****  ****    0 ROOT 
@<TRIPOS>NORMAL
@<TRIPOS>FF_PBC
FORCE_FIELD_SETUP_FEATURE Force Field Setup information
v1.0  0 0.000000 0.000000 0.000000 0.000000 0.000000 0.000000 NONE 0 0 0 0 0 0 0 0 0 0 0 0 0
