# Sybyl Mol2 file written by AstexViewer 2.0.2851
@<TRIPOS>MOLECULE
1abe_ligand.mol2
6 6 1
SMALL
USER_CHARGES


@<TRIPOS>ATOM
    1 C1     14.297   56.579   55.195 C.3        1 <1>    0.185
    2 C3     12.887   57.138   54.867 C.3        1 <1>    0.134
    3 C5     12.289   56.363   53.665 C.3        1 <1>    0.114
    4 C7     13.282   56.334   52.472 C.3        1 <1>    0.107
    5 C9     14.662   55.815   52.948 C.3        1 <1>    0.079
    6 O20    15.156   56.619   54.036 O.3        1 <1>   -0.346
@<TRIPOS>BOND
    1     1     2   1
    2     1     6   1
    3     2     3   1
    4     3     4   1
    5     4     5   1
    6     5     6   1
